<nodes>
<node id="n0" x="100" y="300" type="priority"/>
<node id="n1" x="300" y="300" type="traffic_light"/>
<node id="n2" x="500" y="300" type="traffic_light"/>
<node id="n3" x="700" y="300" type="priority"/>
<node id="n4" x="300" y="100" type="traffic_light"/>
<node id="n5" x="500" y="100" type="traffic_light"/>
</nodes>
