<edges>
<edge id="L01" fromnode="n1" tonode="n0" priority="75" nolanes="2" speed="40"/>
<edge id="R01" fromnode="n0" tonode="n1" priority="75" nolanes="2" speed="40"/>
<edge id="L12" fromnode="n2" tonode="n1" priority="75" nolanes="2" speed="40"/>
<edge id="R12" fromnode="n1" tonode="n2" priority="75" nolanes="2" speed="40"/>
<edge id="L23" fromnode="n3" tonode="n2" priority="75" nolanes="2" speed="40"/>
<edge id="R23" fromnode="n2" tonode="n3" priority="75" nolanes="2" speed="40"/>
<edge id="D04" fromnode="n0" tonode="n4" priority="75" nolanes="2" speed="40"/>
<edge id="U04" fromnode="n4" tonode="n0" priority="75" nolanes="2" speed="40"/>
<edge id="D14" fromnode="n1" tonode="n4" priority="75" nolanes="2" speed="40"/>
<edge id="U14" fromnode="n4" tonode="n1" priority="75" nolanes="2" speed="40"/>
<edge id="D35" fromnode="n3" tonode="n5" priority="75" nolanes="2" speed="40"/>
<edge id="U35" fromnode="n5" tonode="n3" priority="75" nolanes="2" speed="40"/>
<edge id="D25" fromnode="n2" tonode="n5" priority="75" nolanes="2" speed="40"/>
<edge id="U25" fromnode="n5" tonode="n2" priority="75" nolanes="2" speed="40"/>
<edge id="L45" fromnode="n5" tonode="n4" priority="75" nolanes="2" speed="40"/>
<edge id="R45" fromnode="n4" tonode="n5" priority="75" nolanes="2" speed="40"/>
</edges>
