<?xml version="1.0"?>

<!-- generated on Tue Nov 20 14:39:56 2018 by SUMO netconvert Version 0.12.3
<?xml version="1.0" encoding="iso-8859-1"?>

<configuration xmlns:xsi="http://www.w3.org/2001/XMLSchema-instance" xsi:noNamespaceSchemaLocation="http://sumo.sf.net/xsd/netconvertConfiguration.xsd">

    <input>
        <xml-node-files value="/home/vanet/vanetstudy/test.nod.xml"/>
        <xml-edge-files value="/home/vanet/vanetstudy/test.edg.xml"/>
    </input>

    <output>
        <output-file value="/home/vanet/vanetstudy/test.net.xml"/>
    </output>

    <processing>
        <speed-in-kmh value="false"/>
        <remove-geometry value="false"/>
        <remove-isolated value="false"/>
        <no-turnarounds value="false"/>
    </processing>

    <building_defaults>
        <type value="Unknown"/>
        <lanenumber value="2"/>
        <speed value="20"/>
        <priority value="75"/>
    </building_defaults>

    <report>
        <verbose value="true"/>
        <print-options value="false"/>
    </report>

</configuration>
-->

<net>

   <location netOffset="-100.00,-100.00" convBoundary="0.00,0.00,600.00,200.00" origBoundary="100.00,100.00,700.00,300.00" projParameter="!"/>

   <edge id=":n0_0" function="internal">
      <lanes>
         <lane id=":n0_0_0" depart="0" maxspeed="40.00" length="34.39" shape="15.81,204.95 4.89,203.72 -0.10,200.04 0.83,193.91 7.68,185.32"/>
      </lanes>
   </edge>
   <edge id=":n0_1" function="internal">
      <lanes>
         <lane id=":n0_1_0" depart="0" maxspeed="40.00" length="24.52" shape="15.81,201.65 8.03,200.78 4.47,198.15 5.13,193.78 10.01,187.65"/>
      </lanes>
   </edge>
   <edge id=":n0_2" function="internal">
      <lanes>
         <lane id=":n0_2_0" depart="0" maxspeed="40.00" length="4.82" shape="15.81,201.65 14.58,200.83 14.16,200.00 14.58,199.18 15.81,198.35"/>
      </lanes>
   </edge>
   <edge id=":n0_3" function="internal">
      <lanes>
         <lane id=":n0_3_0" depart="0" maxspeed="40.00" length="4.78" shape="14.68,192.32 13.73,193.51 13.60,194.37 14.29,194.88 15.81,195.05"/>
      </lanes>
   </edge>
   <edge id=":n0_4" function="internal">
      <lanes>
         <lane id=":n0_4_0" depart="0" maxspeed="40.00" length="14.65" shape="12.35,189.99 9.43,193.64 9.03,196.26 11.16,197.83 15.81,198.35"/>
      </lanes>
   </edge>
   <edge id=":n0_5" function="internal">
      <lanes>
         <lane id=":n0_5_0" depart="0" maxspeed="40.00" length="4.82" shape="12.35,189.99 10.89,190.28 10.01,189.99 9.72,189.11 10.01,187.65"/>
      </lanes>
   </edge>
   <edge id=":n1_0" function="internal">
      <lanes>
         <lane id=":n1_0_0" depart="0" maxspeed="40.00" length="16.10" shape="208.05,204.95 203.27,204.95 200.00,204.95 196.73,204.95 191.95,204.95"/>
      </lanes>
   </edge>
   <edge id=":n1_1" function="internal">
      <lanes>
         <lane id=":n1_1_0" depart="0" maxspeed="40.00" length="16.10" shape="208.05,201.65 203.27,201.65 200.00,201.65 196.73,201.65 191.95,201.65"/>
      </lanes>
   </edge>
   <edge id=":n1_2" function="internal">
      <lanes>
         <lane id=":n1_2_0" depart="0" maxspeed="40.00" length="8.84" shape="208.05,201.65 203.81,201.04 199.48,197.07"/>
      </lanes>
   </edge>
   <edge id=":n1_11" function="internal">
      <lanes>
         <lane id=":n1_11_0" depart="0" maxspeed="40.00" length="6.80" shape="199.48,197.07 198.96,196.19 198.35,191.95"/>
      </lanes>
   </edge>
   <edge id=":n1_3" function="internal">
      <lanes>
         <lane id=":n1_3_0" depart="0" maxspeed="40.00" length="0.10" shape="208.05,201.65 206.90,200.88"/>
      </lanes>
   </edge>
   <edge id=":n1_12" function="internal">
      <lanes>
         <lane id=":n1_12_0" depart="0" maxspeed="40.00" length="4.72" shape="206.90,200.88 206.81,200.83 206.40,200.00 206.81,199.18 208.05,198.35"/>
      </lanes>
   </edge>
   <edge id=":n1_4" function="internal">
      <lanes>
         <lane id=":n1_4_0" depart="0" maxspeed="40.00" length="5.00" shape="204.95,191.95 205.14,193.31 205.73,194.28 206.69,194.86 208.05,195.05"/>
      </lanes>
   </edge>
   <edge id=":n1_5" function="internal">
      <lanes>
         <lane id=":n1_5_0" depart="0" maxspeed="40.00" length="3.13" shape="201.65,191.95 201.49,193.09"/>
      </lanes>
   </edge>
   <edge id=":n1_13" function="internal">
      <lanes>
         <lane id=":n1_13_0" depart="0" maxspeed="40.00" length="12.51" shape="201.49,193.09 201.04,196.19 199.23,199.22 196.19,201.04 191.95,201.65"/>
      </lanes>
   </edge>
   <edge id=":n1_6" function="internal">
      <lanes>
         <lane id=":n1_6_0" depart="0" maxspeed="40.00" length="0.10" shape="201.65,191.95 200.88,193.10"/>
      </lanes>
   </edge>
   <edge id=":n1_14" function="internal">
      <lanes>
         <lane id=":n1_14_0" depart="0" maxspeed="40.00" length="4.72" shape="200.88,193.10 200.83,193.19 200.00,193.60 199.18,193.19 198.35,191.95"/>
      </lanes>
   </edge>
   <edge id=":n1_7" function="internal">
      <lanes>
         <lane id=":n1_7_0" depart="0" maxspeed="40.00" length="5.00" shape="191.95,195.05 193.31,194.86 194.27,194.28 194.86,193.31 195.05,191.95"/>
      </lanes>
   </edge>
   <edge id=":n1_8" function="internal">
      <lanes>
         <lane id=":n1_8_0" depart="0" maxspeed="40.00" length="16.10" shape="191.95,195.05 196.73,195.05 200.00,195.05 203.27,195.05 208.05,195.05"/>
      </lanes>
   </edge>
   <edge id=":n1_9" function="internal">
      <lanes>
         <lane id=":n1_9_0" depart="0" maxspeed="40.00" length="16.10" shape="191.95,198.35 196.73,198.35 200.00,198.35 203.27,198.35 208.05,198.35"/>
      </lanes>
   </edge>
   <edge id=":n1_10" function="internal">
      <lanes>
         <lane id=":n1_10_0" depart="0" maxspeed="40.00" length="0.10" shape="191.95,198.35 193.10,199.12"/>
      </lanes>
   </edge>
   <edge id=":n1_15" function="internal">
      <lanes>
         <lane id=":n1_15_0" depart="0" maxspeed="40.00" length="4.72" shape="193.10,199.12 193.19,199.17 193.60,200.00 193.19,200.82 191.95,201.65"/>
      </lanes>
   </edge>
   <edge id=":n2_0" function="internal">
      <lanes>
         <lane id=":n2_0_0" depart="0" maxspeed="40.00" length="16.10" shape="408.05,204.95 403.27,204.95 400.00,204.95 396.73,204.95 391.95,204.95"/>
      </lanes>
   </edge>
   <edge id=":n2_1" function="internal">
      <lanes>
         <lane id=":n2_1_0" depart="0" maxspeed="40.00" length="16.10" shape="408.05,201.65 403.27,201.65 400.00,201.65 396.73,201.65 391.95,201.65"/>
      </lanes>
   </edge>
   <edge id=":n2_2" function="internal">
      <lanes>
         <lane id=":n2_2_0" depart="0" maxspeed="40.00" length="8.84" shape="408.05,201.65 403.81,201.04 399.48,197.07"/>
      </lanes>
   </edge>
   <edge id=":n2_11" function="internal">
      <lanes>
         <lane id=":n2_11_0" depart="0" maxspeed="40.00" length="6.80" shape="399.48,197.07 398.96,196.19 398.35,191.95"/>
      </lanes>
   </edge>
   <edge id=":n2_3" function="internal">
      <lanes>
         <lane id=":n2_3_0" depart="0" maxspeed="40.00" length="0.10" shape="408.05,201.65 406.90,200.88"/>
      </lanes>
   </edge>
   <edge id=":n2_12" function="internal">
      <lanes>
         <lane id=":n2_12_0" depart="0" maxspeed="40.00" length="4.72" shape="406.90,200.88 406.81,200.83 406.40,200.00 406.81,199.18 408.05,198.35"/>
      </lanes>
   </edge>
   <edge id=":n2_4" function="internal">
      <lanes>
         <lane id=":n2_4_0" depart="0" maxspeed="40.00" length="5.00" shape="404.95,191.95 405.14,193.31 405.73,194.28 406.69,194.86 408.05,195.05"/>
      </lanes>
   </edge>
   <edge id=":n2_5" function="internal">
      <lanes>
         <lane id=":n2_5_0" depart="0" maxspeed="40.00" length="3.13" shape="401.65,191.95 401.49,193.09"/>
      </lanes>
   </edge>
   <edge id=":n2_13" function="internal">
      <lanes>
         <lane id=":n2_13_0" depart="0" maxspeed="40.00" length="12.51" shape="401.49,193.09 401.04,196.19 399.23,199.22 396.19,201.04 391.95,201.65"/>
      </lanes>
   </edge>
   <edge id=":n2_6" function="internal">
      <lanes>
         <lane id=":n2_6_0" depart="0" maxspeed="40.00" length="0.10" shape="401.65,191.95 400.88,193.10"/>
      </lanes>
   </edge>
   <edge id=":n2_14" function="internal">
      <lanes>
         <lane id=":n2_14_0" depart="0" maxspeed="40.00" length="4.72" shape="400.88,193.10 400.83,193.19 400.00,193.60 399.18,193.19 398.35,191.95"/>
      </lanes>
   </edge>
   <edge id=":n2_7" function="internal">
      <lanes>
         <lane id=":n2_7_0" depart="0" maxspeed="40.00" length="5.00" shape="391.95,195.05 393.31,194.86 394.27,194.28 394.86,193.31 395.05,191.95"/>
      </lanes>
   </edge>
   <edge id=":n2_8" function="internal">
      <lanes>
         <lane id=":n2_8_0" depart="0" maxspeed="40.00" length="16.10" shape="391.95,195.05 396.73,195.05 400.00,195.05 403.27,195.05 408.05,195.05"/>
      </lanes>
   </edge>
   <edge id=":n2_9" function="internal">
      <lanes>
         <lane id=":n2_9_0" depart="0" maxspeed="40.00" length="16.10" shape="391.95,198.35 396.73,198.35 400.00,198.35 403.27,198.35 408.05,198.35"/>
      </lanes>
   </edge>
   <edge id=":n2_10" function="internal">
      <lanes>
         <lane id=":n2_10_0" depart="0" maxspeed="40.00" length="0.10" shape="391.95,198.35 393.10,199.12"/>
      </lanes>
   </edge>
   <edge id=":n2_15" function="internal">
      <lanes>
         <lane id=":n2_15_0" depart="0" maxspeed="40.00" length="4.72" shape="393.10,199.12 393.19,199.17 393.60,200.00 393.19,200.82 391.95,201.65"/>
      </lanes>
   </edge>
   <edge id=":n3_0" function="internal">
      <lanes>
         <lane id=":n3_0_0" depart="0" maxspeed="40.00" length="34.39" shape="592.32,185.32 599.17,193.91 600.10,200.04 595.11,203.72 584.19,204.95"/>
      </lanes>
   </edge>
   <edge id=":n3_1" function="internal">
      <lanes>
         <lane id=":n3_1_0" depart="0" maxspeed="40.00" length="24.52" shape="589.99,187.65 594.87,193.78 595.53,198.15 591.97,200.78 584.19,201.65"/>
      </lanes>
   </edge>
   <edge id=":n3_2" function="internal">
      <lanes>
         <lane id=":n3_2_0" depart="0" maxspeed="40.00" length="4.82" shape="589.99,187.65 590.28,189.11 589.99,189.99 589.11,190.28 587.65,189.99"/>
      </lanes>
   </edge>
   <edge id=":n3_3" function="internal">
      <lanes>
         <lane id=":n3_3_0" depart="0" maxspeed="40.00" length="4.78" shape="584.19,195.05 585.71,194.88 586.40,194.37 586.27,193.51 585.32,192.32"/>
      </lanes>
   </edge>
   <edge id=":n3_4" function="internal">
      <lanes>
         <lane id=":n3_4_0" depart="0" maxspeed="40.00" length="14.65" shape="584.19,198.35 588.84,197.83 590.97,196.26 590.57,193.64 587.65,189.99"/>
      </lanes>
   </edge>
   <edge id=":n3_5" function="internal">
      <lanes>
         <lane id=":n3_5_0" depart="0" maxspeed="40.00" length="4.82" shape="584.19,198.35 585.42,199.17 585.84,200.00 585.42,200.82 584.19,201.65"/>
      </lanes>
   </edge>
   <edge id=":n4_0" function="internal">
      <lanes>
         <lane id=":n4_0_0" depart="0" maxspeed="40.00" length="6.64" shape="195.05,17.31 194.81,15.20 194.10,14.24 192.92,14.42 191.26,15.74"/>
      </lanes>
   </edge>
   <edge id=":n4_1" function="internal">
      <lanes>
         <lane id=":n4_1_0" depart="0" maxspeed="40.00" length="8.26" shape="198.35,17.31 198.96,9.02"/>
      </lanes>
   </edge>
   <edge id=":n4_11" function="internal">
      <lanes>
         <lane id=":n4_11_0" depart="0" maxspeed="40.00" length="15.33" shape="198.96,9.02 200.77,3.09 203.81,-0.46 208.05,-1.65"/>
      </lanes>
   </edge>
   <edge id=":n4_2" function="internal">
      <lanes>
         <lane id=":n4_2_0" depart="0" maxspeed="40.00" length="0.10" shape="198.35,17.31 199.12,16.16"/>
      </lanes>
   </edge>
   <edge id=":n4_12" function="internal">
      <lanes>
         <lane id=":n4_12_0" depart="0" maxspeed="40.00" length="4.72" shape="199.12,16.16 199.17,16.08 200.00,15.66 200.82,16.08 201.65,17.31"/>
      </lanes>
   </edge>
   <edge id=":n4_3" function="internal">
      <lanes>
         <lane id=":n4_3_0" depart="0" maxspeed="40.00" length="13.39" shape="208.05,4.95 206.69,5.72 205.73,8.04 205.14,11.90 204.95,17.31"/>
      </lanes>
   </edge>
   <edge id=":n4_4" function="internal">
      <lanes>
         <lane id=":n4_4_0" depart="0" maxspeed="40.00" length="20.33" shape="208.05,4.95 204.75,5.62 200.85,7.65 196.35,11.02 191.26,15.74"/>
      </lanes>
   </edge>
   <edge id=":n4_5" function="internal">
      <lanes>
         <lane id=":n4_5_0" depart="0" maxspeed="40.00" length="22.90" shape="208.05,1.65 204.09,2.38 199.59,4.59 194.53,8.26 188.92,13.41"/>
      </lanes>
   </edge>
   <edge id=":n4_6" function="internal">
      <lanes>
         <lane id=":n4_6_0" depart="0" maxspeed="40.00" length="0.10" shape="208.05,1.65 206.90,0.88"/>
      </lanes>
   </edge>
   <edge id=":n4_13" function="internal">
      <lanes>
         <lane id=":n4_13_0" depart="0" maxspeed="40.00" length="4.72" shape="206.90,0.88 206.81,0.83 206.40,0.00 206.81,-0.82 208.05,-1.65"/>
      </lanes>
   </edge>
   <edge id=":n4_7" function="internal">
      <lanes>
         <lane id=":n4_7_0" depart="0" maxspeed="40.00" length="28.06" shape="184.26,8.74 190.88,2.75 197.05,-1.53 202.78,-4.09 208.05,-4.95"/>
      </lanes>
   </edge>
   <edge id=":n4_8" function="internal">
      <lanes>
         <lane id=":n4_8_0" depart="0" maxspeed="40.00" length="25.48" shape="186.59,11.08 192.70,5.51 198.32,1.53 203.43,-0.85 208.05,-1.65"/>
      </lanes>
   </edge>
   <edge id=":n4_9" function="internal">
      <lanes>
         <lane id=":n4_9_0" depart="0" maxspeed="40.00" length="13.77" shape="186.59,11.08 193.18,5.82 200.36,8.47"/>
      </lanes>
   </edge>
   <edge id=":n4_14" function="internal">
      <lanes>
         <lane id=":n4_14_0" depart="0" maxspeed="40.00" length="12.61" shape="200.36,8.47 200.71,8.94 201.65,17.31"/>
      </lanes>
   </edge>
   <edge id=":n4_10" function="internal">
      <lanes>
         <lane id=":n4_10_0" depart="0" maxspeed="40.00" length="0.10" shape="186.59,11.08 187.95,10.80"/>
      </lanes>
   </edge>
   <edge id=":n4_15" function="internal">
      <lanes>
         <lane id=":n4_15_0" depart="0" maxspeed="40.00" length="4.72" shape="187.95,10.80 188.05,10.78 188.92,11.08 189.22,11.95 188.92,13.41"/>
      </lanes>
   </edge>
   <edge id=":n5_0" function="internal">
      <lanes>
         <lane id=":n5_0_0" depart="0" maxspeed="40.00" length="13.39" shape="395.05,17.31 394.86,11.90 394.27,8.04 393.31,5.72 391.95,4.95"/>
      </lanes>
   </edge>
   <edge id=":n5_1" function="internal">
      <lanes>
         <lane id=":n5_1_0" depart="0" maxspeed="40.00" length="10.49" shape="398.35,17.31 400.89,6.76"/>
      </lanes>
   </edge>
   <edge id=":n5_11" function="internal">
      <lanes>
         <lane id=":n5_11_0" depart="0" maxspeed="40.00" length="15.89" shape="400.89,6.76 402.11,5.11 406.82,5.82 413.41,11.08"/>
      </lanes>
   </edge>
   <edge id=":n5_2" function="internal">
      <lanes>
         <lane id=":n5_2_0" depart="0" maxspeed="40.00" length="0.10" shape="398.35,17.31 399.12,16.16"/>
      </lanes>
   </edge>
   <edge id=":n5_12" function="internal">
      <lanes>
         <lane id=":n5_12_0" depart="0" maxspeed="40.00" length="4.72" shape="399.12,16.16 399.17,16.08 400.00,15.66 400.82,16.08 401.65,17.31"/>
      </lanes>
   </edge>
   <edge id=":n5_3" function="internal">
      <lanes>
         <lane id=":n5_3_0" depart="0" maxspeed="40.00" length="6.64" shape="408.74,15.74 407.08,14.42 405.90,14.24 405.19,15.20 404.95,17.31"/>
      </lanes>
   </edge>
   <edge id=":n5_4" function="internal">
      <lanes>
         <lane id=":n5_4_0" depart="0" maxspeed="40.00" length="20.93" shape="408.74,15.74 404.54,11.08 401.44,7.70 397.79,5.64 391.95,4.95"/>
      </lanes>
   </edge>
   <edge id=":n5_5" function="internal">
      <lanes>
         <lane id=":n5_5_0" depart="0" maxspeed="40.00" length="23.34" shape="411.08,13.41 406.51,8.59 402.61,4.88 398.16,2.49 391.95,1.65"/>
      </lanes>
   </edge>
   <edge id=":n5_6" function="internal">
      <lanes>
         <lane id=":n5_6_0" depart="0" maxspeed="40.00" length="0.10" shape="411.08,13.41 410.80,12.05"/>
      </lanes>
   </edge>
   <edge id=":n5_13" function="internal">
      <lanes>
         <lane id=":n5_13_0" depart="0" maxspeed="40.00" length="4.72" shape="410.80,12.05 410.78,11.95 411.08,11.08 411.95,10.78 413.41,11.08"/>
      </lanes>
   </edge>
   <edge id=":n5_7" function="internal">
      <lanes>
         <lane id=":n5_7_0" depart="0" maxspeed="40.00" length="28.06" shape="391.95,-4.95 397.22,-4.09 402.95,-1.53 409.12,2.75 415.74,8.74"/>
      </lanes>
   </edge>
   <edge id=":n5_8" function="internal">
      <lanes>
         <lane id=":n5_8_0" depart="0" maxspeed="40.00" length="25.48" shape="391.95,-1.65 396.57,-0.85 401.68,1.53 407.30,5.51 413.41,11.08"/>
      </lanes>
   </edge>
   <edge id=":n5_9" function="internal">
      <lanes>
         <lane id=":n5_9_0" depart="0" maxspeed="40.00" length="9.01" shape="391.95,-1.65 399.23,3.09"/>
      </lanes>
   </edge>
   <edge id=":n5_14" function="internal">
      <lanes>
         <lane id=":n5_14_0" depart="0" maxspeed="40.00" length="14.59" shape="399.23,3.09 401.04,9.02 401.65,17.31"/>
      </lanes>
   </edge>
   <edge id=":n5_10" function="internal">
      <lanes>
         <lane id=":n5_10_0" depart="0" maxspeed="40.00" length="0.10" shape="391.95,-1.65 393.10,-0.88"/>
      </lanes>
   </edge>
   <edge id=":n5_15" function="internal">
      <lanes>
         <lane id=":n5_15_0" depart="0" maxspeed="40.00" length="4.72" shape="393.10,-0.88 393.19,-0.83 393.60,-0.00 393.19,0.82 391.95,1.65"/>
      </lanes>
   </edge>

   <edge id="D04" from="n0" to="n4" priority="75" type="" function="normal">
      <lanes>
         <lane id="D04_0" depart="1" maxspeed="40.00" length="249.72" shape="7.68,185.32 184.26,8.74"/>
         <lane id="D04_1" depart="0" maxspeed="40.00" length="249.72" shape="10.01,187.65 186.59,11.08"/>
      </lanes>
   </edge>
   <edge id="D14" from="n1" to="n4" priority="75" type="" function="normal">
      <lanes>
         <lane id="D14_0" depart="1" maxspeed="40.00" length="174.64" shape="195.05,191.95 195.05,17.31"/>
         <lane id="D14_1" depart="0" maxspeed="40.00" length="174.64" shape="198.35,191.95 198.35,17.31"/>
      </lanes>
   </edge>
   <edge id="D25" from="n2" to="n5" priority="75" type="" function="normal">
      <lanes>
         <lane id="D25_0" depart="1" maxspeed="40.00" length="174.64" shape="395.05,191.95 395.05,17.31"/>
         <lane id="D25_1" depart="0" maxspeed="40.00" length="174.64" shape="398.35,191.95 398.35,17.31"/>
      </lanes>
   </edge>
   <edge id="D35" from="n3" to="n5" priority="75" type="" function="normal">
      <lanes>
         <lane id="D35_0" depart="1" maxspeed="40.00" length="249.72" shape="585.32,192.32 408.74,15.74"/>
         <lane id="D35_1" depart="0" maxspeed="40.00" length="249.72" shape="587.65,189.99 411.08,13.41"/>
      </lanes>
   </edge>
   <edge id="L01" from="n1" to="n0" priority="75" type="" function="normal">
      <lanes>
         <lane id="L01_0" depart="1" maxspeed="40.00" length="176.14" shape="191.95,204.95 15.81,204.95"/>
         <lane id="L01_1" depart="0" maxspeed="40.00" length="176.14" shape="191.95,201.65 15.81,201.65"/>
      </lanes>
   </edge>
   <edge id="L12" from="n2" to="n1" priority="75" type="" function="normal">
      <lanes>
         <lane id="L12_0" depart="1" maxspeed="40.00" length="183.90" shape="391.95,204.95 208.05,204.95"/>
         <lane id="L12_1" depart="0" maxspeed="40.00" length="183.90" shape="391.95,201.65 208.05,201.65"/>
      </lanes>
   </edge>
   <edge id="L23" from="n3" to="n2" priority="75" type="" function="normal">
      <lanes>
         <lane id="L23_0" depart="1" maxspeed="40.00" length="176.14" shape="584.19,204.95 408.05,204.95"/>
         <lane id="L23_1" depart="0" maxspeed="40.00" length="176.14" shape="584.19,201.65 408.05,201.65"/>
      </lanes>
   </edge>
   <edge id="L45" from="n5" to="n4" priority="75" type="" function="normal">
      <lanes>
         <lane id="L45_0" depart="1" maxspeed="40.00" length="183.90" shape="391.95,4.95 208.05,4.95"/>
         <lane id="L45_1" depart="0" maxspeed="40.00" length="183.90" shape="391.95,1.65 208.05,1.65"/>
      </lanes>
   </edge>
   <edge id="R01" from="n0" to="n1" priority="75" type="" function="normal">
      <lanes>
         <lane id="R01_0" depart="1" maxspeed="40.00" length="176.14" shape="15.81,195.05 191.95,195.05"/>
         <lane id="R01_1" depart="0" maxspeed="40.00" length="176.14" shape="15.81,198.35 191.95,198.35"/>
      </lanes>
   </edge>
   <edge id="R12" from="n1" to="n2" priority="75" type="" function="normal">
      <lanes>
         <lane id="R12_0" depart="1" maxspeed="40.00" length="183.90" shape="208.05,195.05 391.95,195.05"/>
         <lane id="R12_1" depart="0" maxspeed="40.00" length="183.90" shape="208.05,198.35 391.95,198.35"/>
      </lanes>
   </edge>
   <edge id="R23" from="n2" to="n3" priority="75" type="" function="normal">
      <lanes>
         <lane id="R23_0" depart="1" maxspeed="40.00" length="176.14" shape="408.05,195.05 584.19,195.05"/>
         <lane id="R23_1" depart="0" maxspeed="40.00" length="176.14" shape="408.05,198.35 584.19,198.35"/>
      </lanes>
   </edge>
   <edge id="R45" from="n4" to="n5" priority="75" type="" function="normal">
      <lanes>
         <lane id="R45_0" depart="1" maxspeed="40.00" length="183.90" shape="208.05,-4.95 391.95,-4.95"/>
         <lane id="R45_1" depart="0" maxspeed="40.00" length="183.90" shape="208.05,-1.65 391.95,-1.65"/>
      </lanes>
   </edge>
   <edge id="U04" from="n4" to="n0" priority="75" type="" function="normal">
      <lanes>
         <lane id="U04_0" depart="1" maxspeed="40.00" length="249.72" shape="191.26,15.74 14.68,192.32"/>
         <lane id="U04_1" depart="0" maxspeed="40.00" length="249.72" shape="188.92,13.41 12.35,189.99"/>
      </lanes>
   </edge>
   <edge id="U14" from="n4" to="n1" priority="75" type="" function="normal">
      <lanes>
         <lane id="U14_0" depart="1" maxspeed="40.00" length="174.64" shape="204.95,17.31 204.95,191.95"/>
         <lane id="U14_1" depart="0" maxspeed="40.00" length="174.64" shape="201.65,17.31 201.65,191.95"/>
      </lanes>
   </edge>
   <edge id="U25" from="n5" to="n2" priority="75" type="" function="normal">
      <lanes>
         <lane id="U25_0" depart="1" maxspeed="40.00" length="174.64" shape="404.95,17.31 404.95,191.95"/>
         <lane id="U25_1" depart="0" maxspeed="40.00" length="174.64" shape="401.65,17.31 401.65,191.95"/>
      </lanes>
   </edge>
   <edge id="U35" from="n5" to="n3" priority="75" type="" function="normal">
      <lanes>
         <lane id="U35_0" depart="1" maxspeed="40.00" length="249.72" shape="415.74,8.74 592.32,185.32"/>
         <lane id="U35_1" depart="0" maxspeed="40.00" length="249.72" shape="413.41,11.08 589.99,187.65"/>
      </lanes>
   </edge>

   <row-logic id="n0" requestSize="6" laneNumber="4">
      <logic>
         <logicitem request="0" response="000000" foes="100000" cont="0"/>
         <logicitem request="1" response="000000" foes="100000" cont="0"/>
         <logicitem request="2" response="011000" foes="011000" cont="0"/>
         <logicitem request="3" response="000000" foes="000100" cont="0"/>
         <logicitem request="4" response="000000" foes="000100" cont="0"/>
         <logicitem request="5" response="000011" foes="000011" cont="0"/>
      </logic>
   </row-logic>
   <row-logic id="n1" requestSize="11" laneNumber="6">
      <logic>
         <logicitem request="0" response="00000000000" foes="10000100000" cont="0"/>
         <logicitem request="1" response="00000000000" foes="10000100000" cont="0"/>
         <logicitem request="2" response="01110000000" foes="01111100000" cont="1"/>
         <logicitem request="3" response="01100010000" foes="01100010000" cont="1"/>
         <logicitem request="4" response="01100000000" foes="01100001000" cont="0"/>
         <logicitem request="5" response="01100000111" foes="11100000111" cont="1"/>
         <logicitem request="6" response="00010000100" foes="00010000100" cont="1"/>
         <logicitem request="7" response="00000000000" foes="00001000100" cont="0"/>
         <logicitem request="8" response="00000000000" foes="00000111100" cont="0"/>
         <logicitem request="9" response="00000000000" foes="00000111100" cont="0"/>
         <logicitem request="10" response="00000100011" foes="00000100011" cont="1"/>
      </logic>
   </row-logic>
   <row-logic id="n2" requestSize="11" laneNumber="6">
      <logic>
         <logicitem request="0" response="00000000000" foes="10000100000" cont="0"/>
         <logicitem request="1" response="00000000000" foes="10000100000" cont="0"/>
         <logicitem request="2" response="01110000000" foes="01111100000" cont="1"/>
         <logicitem request="3" response="01100010000" foes="01100010000" cont="1"/>
         <logicitem request="4" response="01100000000" foes="01100001000" cont="0"/>
         <logicitem request="5" response="01100000111" foes="11100000111" cont="1"/>
         <logicitem request="6" response="00010000100" foes="00010000100" cont="1"/>
         <logicitem request="7" response="00000000000" foes="00001000100" cont="0"/>
         <logicitem request="8" response="00000000000" foes="00000111100" cont="0"/>
         <logicitem request="9" response="00000000000" foes="00000111100" cont="0"/>
         <logicitem request="10" response="00000100011" foes="00000100011" cont="1"/>
      </logic>
   </row-logic>
   <row-logic id="n3" requestSize="6" laneNumber="4">
      <logic>
         <logicitem request="0" response="000000" foes="100000" cont="0"/>
         <logicitem request="1" response="000000" foes="100000" cont="0"/>
         <logicitem request="2" response="011000" foes="011000" cont="0"/>
         <logicitem request="3" response="000000" foes="000100" cont="0"/>
         <logicitem request="4" response="000000" foes="000100" cont="0"/>
         <logicitem request="5" response="000011" foes="000011" cont="0"/>
      </logic>
   </row-logic>
   <row-logic id="n4" requestSize="11" laneNumber="6">
      <logic>
         <logicitem request="0" response="00000110000" foes="10000110000" cont="0"/>
         <logicitem request="1" response="01110110000" foes="01111110000" cont="1"/>
         <logicitem request="2" response="01000001000" foes="01000001000" cont="1"/>
         <logicitem request="3" response="00000000000" foes="01000000100" cont="0"/>
         <logicitem request="4" response="00000000000" foes="11000000011" cont="0"/>
         <logicitem request="5" response="00000000000" foes="11000000011" cont="0"/>
         <logicitem request="6" response="00110000010" foes="00110000010" cont="1"/>
         <logicitem request="7" response="00000000000" foes="00001000010" cont="0"/>
         <logicitem request="8" response="00000000000" foes="00001000010" cont="0"/>
         <logicitem request="9" response="00000111000" foes="00000111110" cont="1"/>
         <logicitem request="10" response="00000110001" foes="00000110001" cont="1"/>
      </logic>
   </row-logic>
   <row-logic id="n5" requestSize="11" laneNumber="6">
      <logic>
         <logicitem request="0" response="00000110000" foes="10000110000" cont="0"/>
         <logicitem request="1" response="01110110000" foes="01111110000" cont="1"/>
         <logicitem request="2" response="01000001000" foes="01000001000" cont="1"/>
         <logicitem request="3" response="00000000000" foes="01000000100" cont="0"/>
         <logicitem request="4" response="00000000000" foes="11000000011" cont="0"/>
         <logicitem request="5" response="00000000000" foes="11000000011" cont="0"/>
         <logicitem request="6" response="00110000010" foes="00110000010" cont="1"/>
         <logicitem request="7" response="00000000000" foes="00001000010" cont="0"/>
         <logicitem request="8" response="00000000000" foes="00001000010" cont="0"/>
         <logicitem request="9" response="00000111000" foes="00000111110" cont="1"/>
         <logicitem request="10" response="00000110001" foes="00000110001" cont="1"/>
      </logic>
   </row-logic>

   <tl-logic id="n1" type="static" programID="0" offset="0">
      <phase duration="31" state="GGggrrrGGGg"/>
      <phase duration="13" state="yyggrrryyyg"/>
      <phase duration="6" state="rrGGrrrrrrG"/>
      <phase duration="13" state="rryyrrrrrry"/>
      <phase duration="31" state="rrrrGGgGrrr"/>
      <phase duration="13" state="rrrryyyyrrr"/>
   </tl-logic>
   <tl-logic id="n2" type="static" programID="0" offset="0">
      <phase duration="31" state="GGggrrrGGGg"/>
      <phase duration="13" state="yyggrrryyyg"/>
      <phase duration="6" state="rrGGrrrrrrG"/>
      <phase duration="13" state="rryyrrrrrry"/>
      <phase duration="31" state="rrrrGGgGrrr"/>
      <phase duration="13" state="rrrryyyyrrr"/>
   </tl-logic>
   <tl-logic id="n4" type="static" programID="0" offset="0">
      <phase duration="31" state="rrrGGGgGGgg"/>
      <phase duration="13" state="rrryyygyygg"/>
      <phase duration="6" state="rrrrrrGrrGG"/>
      <phase duration="13" state="rrrrrryrryy"/>
      <phase duration="31" state="GGgGrrrrrrr"/>
      <phase duration="13" state="yyyyrrrrrrr"/>
   </tl-logic>
   <tl-logic id="n5" type="static" programID="0" offset="0">
      <phase duration="31" state="rrrGGGgGGgg"/>
      <phase duration="13" state="rrryyygyygg"/>
      <phase duration="6" state="rrrrrrGrrGG"/>
      <phase duration="13" state="rrrrrryrryy"/>
      <phase duration="31" state="GGgGrrrrrrr"/>
      <phase duration="13" state="yyyyrrrrrrr"/>
   </tl-logic>

   <junction id="n0" type="priority" x="0.00" y="200.00" incLanes="L01_0 L01_1 U04_0 U04_1" intLanes=":n0_0_0 :n0_1_0 :n0_2_0 :n0_3_0 :n0_4_0 :n0_5_0" shape="15.81,206.55 15.81,193.45 6.55,184.19"/>